data_cif

_audit_creation_method             'generated by GULP'

_symmetry_space_group_name_H-M     'P 1'
_symmetry_Int_Tables_number        1
_symmetry_cell_setting             triclinic

_cell_length_a                        8.7093
_cell_length_b                        8.7093
_cell_length_c                        5.0070
_cell_angle_alpha                   90.0000
_cell_angle_beta                    90.0000
_cell_angle_gamma                   90.0000

loop_
_atom_site_label
_atom_site_fract_x
_atom_site_fract_y
_atom_site_fract_z
_atom_site_occupancy
  Si          0.18050      0.18050      0.00000  1.0000
  Si          0.68050      0.68050      0.50000  1.0000
  Si          0.32502      0.32501      0.50000  1.0000
  Si          0.82502      0.82501      1.00000  1.0000
  Si          0.32502      0.68050      0.50000  1.0000
  Si          0.82502      0.18050      1.00000  1.0000
  Si          0.68050      0.32501      0.50000  1.0000
  Si          0.18050      0.82501      1.00000  1.0000
  O           0.21704      0.00276      0.04864  1.0000
  O           0.71704      0.50276      0.54864  1.0000
  O           0.78847      0.00276      0.04864  1.0000
  O           0.28847      0.50276      0.54864  1.0000
  O           0.00276      0.21705      0.04864  1.0000
  O           0.50276      0.71705      0.54864  1.0000
  O           0.00276      0.78846      0.04864  1.0000
  O           0.50276      0.28846      0.54864  1.0000
  O           0.28216      0.28216      0.19802  1.0000
  O           0.78216      0.78216      0.69802  1.0000
  O           0.22335      0.22335      0.69802  1.0000
  O           0.72335      0.72335      0.19802  1.0000
  O           0.22335      0.78216      0.69802  1.0000
  O           0.72335      0.28216      0.19802  1.0000
  O           0.78216      0.22335      0.69802  1.0000
  O           0.28216      0.72335      0.19802  1.0000
