data_cif

_audit_creation_method             'generated by GULP'

_symmetry_space_group_name_H-M     'P 1'
_symmetry_Int_Tables_number        1
_symmetry_cell_setting             triclinic

_cell_length_a                       13.5579
_cell_length_b                       13.5579
_cell_length_c                        9.6499
_cell_angle_alpha                   90.0000
_cell_angle_beta                    90.0000
_cell_angle_gamma                  120.0000

loop_
_atom_site_label
_atom_site_fract_x
_atom_site_fract_y
_atom_site_fract_z
_atom_site_occupancy
  Si          0.43936      0.10643      0.08948  1.0000
  Si          0.56064      0.89357      0.58948  1.0000
  Si          0.89357      0.33293      0.08948  1.0000
  Si          0.66707      0.56064      0.08948  1.0000
  Si          0.33293      0.43936      0.58948  1.0000
  Si          0.10643      0.66707      0.58948  1.0000
  Si          0.33293      0.89357      0.91052  1.0000
  Si          0.56064      0.66707      0.91052  1.0000
  Si          0.10643      0.43936      0.91052  1.0000
  Si          0.89357      0.56064      0.41052  1.0000
  Si          0.43936      0.33293      0.41052  1.0000
  Si          0.66707      0.10643      0.41052  1.0000
  Si          0.56064      0.89357      0.91052  1.0000
  Si          0.43936      0.10643      0.41052  1.0000
  Si          0.10643      0.66707      0.91052  1.0000
  Si          0.33293      0.43936      0.91052  1.0000
  Si          0.66707      0.56064      0.41052  1.0000
  Si          0.89357      0.33293      0.41052  1.0000
  Si          0.66707      0.10643      0.08948  1.0000
  Si          0.43936      0.33293      0.08948  1.0000
  Si          0.89357      0.56064      0.08948  1.0000
  Si          0.10643      0.43936      0.58948  1.0000
  Si          0.56064      0.66707      0.58948  1.0000
  Si          0.33293      0.89357      0.58948  1.0000
  O           0.56689      0.13378      0.05747  1.0000
  O           0.43311      0.86622      0.55747  1.0000
  O           0.86622      0.43311      0.05747  1.0000
  O           0.56689      0.43311      0.05747  1.0000
  O           0.43311      0.56689      0.55747  1.0000
  O           0.13378      0.56689      0.55747  1.0000
  O           0.43311      0.86622      0.94253  1.0000
  O           0.43311      0.56689      0.94253  1.0000
  O           0.13378      0.56689      0.94253  1.0000
  O           0.86622      0.43311      0.44253  1.0000
  O           0.56689      0.43311      0.44253  1.0000
  O           0.56689      0.13378      0.44253  1.0000
  O           0.34839      0.00000      0.00000  1.0000
  O           0.65161      0.00000      0.50000  1.0000
  O           0.00000      0.34839      0.00000  1.0000
  O           0.65161      0.65161      0.00000  1.0000
  O           0.34839      0.34839      0.50000  1.0000
  O           0.00000      0.65161      0.50000  1.0000
  O           0.65161      0.00000      0.00000  1.0000
  O           0.34839      0.00000      0.50000  1.0000
  O           0.00000      0.65161      0.00000  1.0000
  O           0.34839      0.34839      0.00000  1.0000
  O           0.65161      0.65161      0.50000  1.0000
  O           0.00000      0.34839      0.50000  1.0000
  O           0.40882      0.07667      0.25000  1.0000
  O           0.59118      0.92333      0.75000  1.0000
  O           0.92333      0.33215      0.25000  1.0000
  O           0.66785      0.59118      0.25000  1.0000
  O           0.33215      0.40882      0.75000  1.0000
  O           0.07667      0.66785      0.75000  1.0000
  O           0.33215      0.92333      0.75000  1.0000
  O           0.59118      0.66785      0.75000  1.0000
  O           0.07667      0.40882      0.75000  1.0000
  O           0.92333      0.59118      0.25000  1.0000
  O           0.40882      0.33215      0.25000  1.0000
  O           0.66785      0.07667      0.25000  1.0000
  O           0.43096      0.21548      0.04436  1.0000
  O           0.56904      0.78452      0.54436  1.0000
  O           0.78452      0.21548      0.04436  1.0000
  O           0.78452      0.56904      0.04436  1.0000
  O           0.21548      0.43096      0.54436  1.0000
  O           0.21548      0.78452      0.54436  1.0000
  O           0.21548      0.78452      0.95564  1.0000
  O           0.56904      0.78452      0.95564  1.0000
  O           0.21548      0.43096      0.95564  1.0000
  O           0.78452      0.56904      0.45564  1.0000
  O           0.43096      0.21548      0.45564  1.0000
  O           0.78452      0.21548      0.45564  1.0000
