data_cif

#***********************************************************************************************
#
# On use of this cif file, please acknowledge citation to:
#
# Importance of Blocking Inaccessible Voids on Modeling Zeolite Adsorption: Revisited
# Paula Gomez-Alvarez, A. Rabdel Ruiz-Salvador, Said Hamad, and Sofia Calero
# J. Phys. Chem. C, 121 (2017) DOI: 10.1021/acs.jpcc.7b00031
#
# Contact emails
# A.R.R.-S. <rruisal@upo.es> or <rabdelruiz@yahoo.com> 
# S.C. <scalero@upo.es>
#
# Notes:
# 1.- The structure optimized by energy minimization using Sanders, Leslie and Catlow potentials
#     Sanders, M. J.; Leslie, M.; Catlow, C. R. A. Interatomic potentials 648 for SiO2. J. Chem. Soc., 
#     Chem. Commun. 1984, 1271.1273. doi: 10.1039/c39840001271
# 2.- The structure optimization follows that published in: 
#     Ruiz-Salvador, A. R.; Sastre, G.; Lewis, D. W.; Catlow, C. R. A., Space Group Symmetry and Bond 
#     Angles in AlPO4-5. J. Mater. Chem. 666 1996, 6, 1837.1842. doi: 10.1039/JM9960601837 
#
#***********************************************************************************************


_audit_creation_method             'generated by GULP'

_symmetry_space_group_name_H-M     'P 1'
_symmetry_Int_Tables_number        1
_symmetry_cell_setting             triclinic

_cell_length_a                       12.2793
_cell_length_b                       12.2793
_cell_length_c                        5.0995
_cell_angle_alpha                   90.0000
_cell_angle_beta                    90.0001
_cell_angle_gamma                  120.0000

loop_
_atom_site_label
_atom_site_fract_x
_atom_site_fract_y
_atom_site_fract_z
_atom_site_occupancy
  Si          0.07935      0.41411      0.75000  1.0000
  Si          0.91814      0.58413      0.25000  1.0000
  Si          0.58376      0.66474      0.75000  1.0000
  Si          0.33313      0.91852      0.75000  1.0000
  Si          0.66436      0.07972      0.25000  1.0000
  Si          0.41374      0.33351      0.25000  1.0000
  Si          0.66436      0.58413      0.25000  1.0000
  Si          0.91814      0.33351      0.25000  1.0000
  Si          0.41374      0.07972      0.25000  1.0000
  Si          0.58376      0.91852      0.75000  1.0000
  Si          0.07935      0.66474      0.75000  1.0000
  Si          0.33313      0.41411      0.75000  1.0000
  O           0.97446      0.33489      0.53377  1.0000
  O           0.02303      0.66335      0.03377  1.0000
  O           0.66298      0.63907      0.53377  1.0000
  O           0.35880      0.02341      0.53377  1.0000
  O           0.63869      0.97483      0.03377  1.0000
  O           0.33451      0.35918      0.03377  1.0000
  O           0.97446      0.63907      0.53377  1.0000
  O           0.02303      0.35918      0.03377  1.0000
  O           0.35880      0.33489      0.53377  1.0000
  O           0.66298      0.02341      0.53377  1.0000
  O           0.33451      0.97483      0.03377  1.0000
  O           0.63869      0.66335      0.03377  1.0000
  O           0.19868      0.39899      0.69831  1.0000
  O           0.79881      0.59926      0.19831  1.0000
  O           0.59888      0.79919      0.69831  1.0000
  O           0.19868      0.79919      0.69831  1.0000
  O           0.79881      0.19905      0.19831  1.0000
  O           0.39861      0.19905      0.19831  1.0000
  O           0.12216      0.56083      0.72986  1.0000
  O           0.87534      0.43742      0.22986  1.0000
  O           0.43704      0.56083      0.72986  1.0000
  O           0.43704      0.87571      0.72986  1.0000
  O           0.56045      0.12253      0.22986  1.0000
  O           0.56045      0.43742      0.22986  1.0000
