data_output
_audit_creation_date              2017-03-24
_audit_creation_method            'Materials Studio'
_symmetry_space_group_name_H-M    'P1'
_symmetry_Int_Tables_number       1
_symmetry_cell_setting            triclinic
loop_
_symmetry_equiv_pos_as_xyz
  x,y,z
_cell_length_a                    16.2771
_cell_length_b                    16.2771
_cell_length_c                    16.2771
_cell_angle_alpha                 90.0000
_cell_angle_beta                  90.0000
_cell_angle_gamma                 90.0000
loop_
_atom_site_label
_atom_site_fract_x
_atom_site_fract_y
_atom_site_fract_z
_atom_site_occupancy
Zn    0.25000   0.50000   0.00000   0.00000
Zn    0.75000  -0.00000   0.50000   0.00000
Zn    0.25000   0.00000   0.50000   0.00000
Zn    0.75000   0.50000   0.00000   0.00000
Zn    0.00000   0.25000   0.50000   0.00000
Zn    0.50000   0.75000   0.00000   0.00000
Zn    0.50000   0.00000   0.25000   0.00000
Zn    0.00000   0.50000   0.75000   0.00000
Zn    0.50000   0.25000   0.00000   0.00000
Zn    0.00000   0.75000   0.50000   0.00000
Zn    0.00000   0.50000   0.25000   0.00000
Zn    0.50000   0.00000   0.75000   0.00000
C     0.12271   0.87988   0.48804   0.00000
N     0.08747   0.82260   0.53412   0.00000
N     0.18041   0.91221   0.53575   0.00000
C     0.12249   0.81912   0.60871   0.00000
C     0.18294   0.87795   0.61006   0.00000
C     0.10468   0.90343   0.40301   0.00000
H     0.22107   0.89229   0.65775   0.00000
H     0.10822   0.78060   0.65588   0.00000
H     0.05869   0.86335   0.37667   0.00000
H     1.08326   0.96647   0.40271   0.00000
H     0.15880  -0.10019   0.36493   0.00000
C     0.85572   0.54185   0.14565   0.00000
N     0.88979   0.49407   0.20275   0.00000
N     0.80206   0.49239   0.10698   0.00000
C     0.83838   0.43228   0.21976   0.00000
C     0.78560   0.42758   0.15469   0.00000
C     0.87117   0.63004   0.13568   0.00000
H     0.74384   0.38187   0.14530   0.00000
H     0.83941   0.39300   0.26847   0.00000
H     0.81459   0.66335   0.14843   0.00000
H     0.91736   0.64900   0.17993   0.00000
H     0.89283   0.64501   0.07475   0.00000
C     0.52517   0.12742   0.12922   0.00000
N     0.48518   0.19430   0.10383   0.00000
N     0.47758   0.09895   0.18972   0.00000
C     0.42589   0.21573   0.15671   0.00000
C     0.41758   0.15097   0.20967   0.00000
C     0.59929   0.09406   0.09979   0.00000
H     0.37524   0.14524   0.25537   0.00000
H     0.39105   0.26785   0.15664   0.00000
O     0.64968   0.13507   1.05848   0.00000
H     0.61472   0.03521   0.11435   0.00000
C     0.62413   0.37488   0.02434   0.00000
N     0.60487   0.30358  -0.00867   0.00000
N     0.69372   0.39682  -0.01208   0.00000
C     0.66625   0.27387   0.94553   0.00000
C     0.72349   0.33540   0.94178   0.00000
C     0.57760   0.41682   0.08758   0.00000
H     0.77718   0.33333   0.90951   0.00000
H     0.66960   0.21771   0.91751   0.00000
H     0.51705   0.42713   0.06290   0.00000
H     0.57329   0.37766   0.14166   0.00000
H     0.60633   0.47473   0.10445   0.00000
C     0.62594  -0.01718   0.37461   0.00000
N     0.59705   0.02686   0.31217   0.00000
N     0.68965   0.02549   0.40197   0.00000
C     0.64269   0.09413   0.29912   0.00000
C     0.70455   0.09192   0.35610   0.00000
C     0.59605  -0.09497   0.40889   0.00000
H     0.75060   0.13396   0.36270   0.00000
H     0.63393   0.13946   0.25697   0.00000
H     0.54236  -0.11641   0.37608   0.00000
H     0.64442   0.85926   0.40357   0.00000
H     0.58034   0.91301   0.47323   0.00000
C     0.11631   0.50825   0.11340   0.00000
N     0.09778   0.47878   0.18734   0.00000
N     0.19231   0.48231   0.10070   0.00000
C     0.16105   0.43809   0.22094   0.00000
C     0.22351   0.44127   0.16453   0.00000
C     0.07212   0.55743   0.05892   0.00000
H     0.28104   0.41680   0.17023   0.00000
H     0.16368   0.41142   0.27769   0.00000
O     0.99700   0.54990   0.04676   0.00000
H     0.10273   0.59832   1.02352   0.00000
C     0.88628   0.11359   0.51312   0.00000
N     0.89612   0.19488   0.51472   0.00000
N     0.80624   0.10190   0.52026   0.00000
C     0.82383   0.23341   0.52212   0.00000
C     0.76570   0.17277   0.53006   0.00000
C     0.94580   0.05388   0.49891   0.00000
H     0.70382   0.18099   0.53655   0.00000
H     0.81266   0.29510   0.51981   0.00000
O     0.95655  -0.00647   0.54565   0.00000
H     0.98465   0.06276   0.45097   0.00000
C     0.49868   0.11503   0.88584   0.00000
N     0.51584   0.10176   0.80738   0.00000
N     0.50329   0.19539   0.89505   0.00000
C     0.53554   0.17101   0.76814   0.00000
C     0.52485   0.23226   0.82460   0.00000
C     0.48785   0.05927   0.94977   0.00000
H     0.53617   0.29265   0.81385   0.00000
H     0.55324   0.17848   0.70856   0.00000
O     0.53245   0.98934   0.96106   0.00000
H     0.44951   0.07614  -0.00418   0.00000
C     0.38104   0.61875   0.04658   0.00000
N     0.39607   0.69583   0.02242   0.00000
N     0.30399   0.60427   0.02156   0.00000
C     0.32615   0.73408   1.00291   0.00000
C     0.26631   0.67519   1.00366   0.00000
C     0.43147   0.56485   0.09003   0.00000
H     0.20659   0.68435   0.98725   0.00000
H     0.31863   0.79374   0.98520   0.00000
O     0.49978   0.58556   0.11925   0.00000
H     0.40941   0.50781   0.10320   0.00000
C     0.02159   0.62015   0.62053   0.00000
N    -0.01339   0.69140   0.60152   0.00000
N    -0.01379   0.60152   0.69200   0.00000
C     0.94279   0.72270   0.66379   0.00000
C     0.94159   0.66310   0.72298   0.00000
C     0.08540   0.57735   0.58110   0.00000
H     0.91264   0.66577   0.77866   0.00000
H     0.91532   0.77916   0.66672   0.00000
O     0.12742   0.60339   0.52210   0.00000
H     0.10330   0.52278   0.60411   0.00000
C     1.00853   0.38535   0.38645   0.00000
N    -0.00112   0.39628   0.30669   0.00000
N    -0.01158   0.30748   0.39820   0.00000
C    -0.01848   0.32574   0.26774   0.00000
C    -0.03098   0.26864   0.32848   0.00000
C     1.03865   0.44343   0.44702   0.00000
H    -0.04787   0.20854   0.32140   0.00000
H    -0.02522   0.31695   0.20587   0.00000
H     0.08814   0.41539   0.48140   0.00000
H     1.06460   0.49702   0.41807   0.00000
H     0.98851   0.46137   0.48738   0.00000
C     0.37913   0.98880   0.61999   0.00000
N     0.40480   0.02895   0.68615   0.00000
N     0.31646   0.03302   0.59197   0.00000
C     0.36095   0.09738   0.69907   0.00000
C     0.30632   0.10202   0.63523   0.00000
C     0.41355   0.91387   0.58326   0.00000
H     0.26731   0.14935   0.62381   0.00000
H     0.36766   0.13976   0.74471   0.00000
H     0.43599  -0.07131   0.52242   0.00000
H     0.46505   0.89031   0.61848   0.00000
H     0.36622   0.86687   0.57869   0.00000
C     0.61746   0.61964   0.96560   0.00000
N     0.60647   0.69909  -0.02011   0.00000
N     0.69617   0.60449  -0.01726   0.00000
C     0.68005   0.73614  -0.01487   0.00000
C     0.73771   0.67495  -0.01525   0.00000
C     0.56042   0.56578   0.93238   0.00000
H     0.79951   0.68290  -0.01332   0.00000
H     0.69375   0.79656  -0.00799   0.00000
O     0.49295   0.59000   0.90355   0.00000
H     0.57853   0.50692   0.92543   0.00000
C     0.88068   0.46872   0.88090   0.00000
N     0.89368   0.48688   0.80201   0.00000
N     0.80516   0.49582   0.89550   0.00000
C     0.82471   0.51200   0.76487   0.00000
C     0.76711   0.51851   0.82611   0.00000
C     0.93428   0.43341   0.93729   0.00000
H     0.70784   0.53833   0.81965   0.00000
H     0.81725   0.52795   0.70442   0.00000
O     0.00442   0.39844   0.91038   0.00000
H     0.92185   0.43704  -0.00171   0.00000
C     0.61634   0.01906   0.61634   0.00000
N     0.60121  -0.01079   0.69134   0.00000
N     0.69139  -0.00949   0.60144   0.00000
C     0.66604   0.95189   0.72522   0.00000
C     0.72608   0.95423   0.66646   0.00000
C     0.56944   0.07020   0.56443   0.00000
H     0.78465   0.93183   0.67102   0.00000
H     0.67079   0.92699   0.78249   0.00000
O     0.51047   0.11385   0.58739   0.00000
H     0.58591   0.07715   0.50497   0.00000
C     0.48412   0.87839   0.12303   0.00000
N     0.52927   0.90643   0.18483   0.00000
N     0.52484   0.81287   0.09694   0.00000
C     0.59457   0.85904   0.20003   0.00000
C     0.58921   0.79549   0.14511   0.00000
C     0.40549   0.91004   0.09260   0.00000
H     0.62767   0.74600   0.14174   0.00000
H     0.63895   0.86690   0.24352   0.00000
H     0.35687   0.86840   0.11171   0.00000
H     0.39231   0.97060   0.11728   0.00000
H     0.40704   0.91373   0.02608   0.00000
C     0.12345   0.48099   0.87783   0.00000
N     0.09653   0.52476   0.81373   0.00000
N     0.19056   0.52161   0.90092   0.00000
C     0.14856   0.58481   0.79259   0.00000
C     0.21165   0.58073   0.84792   0.00000
C     0.08919   0.40394   0.91367   0.00000
H     0.26302   0.61679   0.84849   0.00000
H     0.14399   0.62514   0.74489   0.00000
O     1.04073   0.35015   0.85911   0.00000
H     0.11211   0.37952   0.97092   0.00000
C     0.12775   0.12649   0.51746   0.00000
N     0.09431   0.18415   0.47029   0.00000
N     0.18492   0.09283   0.46926   0.00000
C     0.13468   0.19141   0.39857   0.00000
C     0.19263   0.13038   0.39709   0.00000
C     0.10665   0.10663   0.60356   0.00000
H     0.23266   0.11701   0.35068   0.00000
H     0.12542   0.23301   0.35281   0.00000
H     0.12659   0.15514   0.64452   0.00000
H     0.04119   0.10021   0.61212   0.00000
H     0.13488   0.04941   0.62287   0.00000
C     0.37566   0.37756   0.95649   0.00000
N     0.39389   0.30225  -0.01627   0.00000
N     0.30163   0.39338  -0.01252   0.00000
C     0.32547   0.26386   0.00786   0.00000
C     0.26689   0.32380   0.01453   0.00000
C     0.42004   0.42935   0.90516   0.00000
H     0.20997   0.31576   0.03931   0.00000
H     0.31901   0.20368   0.02450   0.00000
O     0.48848   0.40920   0.87639   0.00000
H     0.39350   0.48309   0.88704   0.00000
C     0.98585   0.36523   0.63617   0.00000
N     0.03575   0.40740   0.68482   0.00000
N     0.03467   0.31495   0.59352   0.00000
C     0.11302   0.37951   0.68043   0.00000
C     0.11264   0.32086   0.61948   0.00000
C     0.90079   0.37522   0.63109   0.00000
H     0.16272   0.29031   0.59719   0.00000
H     0.16275   0.39940   0.71317   0.00000
O     0.86790   0.43726   0.59897   0.00000
H     0.86463   0.33073   0.65622   0.00000
C     0.86508   0.86603   0.44805   0.00000
N     0.88930   0.79616   0.48477   0.00000
N     0.79776   0.89030   0.48838   0.00000
C     0.82444   0.76487   0.52479   0.00000
C     0.76632   0.82581   0.52836   0.00000
C     0.89443   0.90180   0.37097   0.00000
H     0.71171   0.82296   0.55907   0.00000
H     0.82000   0.70892   0.55273   0.00000
H     0.94317   0.94504   0.38104   0.00000
H     0.91544   0.85255   0.33090   0.00000
H     0.84384   0.93349   0.34074   0.00000
C     0.98024   0.63190   0.36922   0.00000
N     0.02647   0.59892   0.30996   0.00000
N     0.02951   0.68756   0.40380   0.00000
C     0.09961   0.63612   0.30355   0.00000
C     0.10199   0.69327   0.36564   0.00000
C     0.90044   0.60996   0.39374   0.00000
H     0.15025   0.73026   0.38085   0.00000
H     0.14603   0.62286   0.26348   0.00000
O     0.84725   0.58276   0.34505   0.00000
H     0.88423   0.61725   0.45360   0.00000
C     0.51095   0.87683   0.87811   0.00000
N     0.47443   0.89973   0.80850   0.00000
N     0.47617   0.80614   0.89840   0.00000
C     0.42000   0.84288   0.78410   0.00000
C     0.42330   0.78052   0.84108   0.00000
C     0.57330   0.91882   0.92846   0.00000
H     0.39112   0.72654   0.84017   0.00000
H     0.38299   0.84414   0.73372   0.00000
O     0.60192  -0.00112   0.92028   0.00000
H     0.59927   0.88644   0.97960   0.00000
C     0.38166   0.01070   0.38295   0.00000
N     0.41207  -0.03427   0.32128   0.00000
N     0.32195  -0.03682   0.41336   0.00000
C     0.37733   0.89140   0.31645   0.00000
C     0.32010   0.88881   0.37839   0.00000
C     0.40616   0.08825   0.41304   0.00000
H     0.28405   0.83989   0.39397   0.00000
H     0.39111   0.84523   0.27625   0.00000
O     0.46027   0.13275   0.38107   0.00000
H     0.37923   0.11099   0.46458   0.00000
