data_cif

_audit_creation_method             'generated by GULP'

_symmetry_space_group_name_H-M     'P 1'
_symmetry_Int_Tables_number        1
_symmetry_cell_setting             triclinic

_cell_length_a                       16.0486
_cell_length_b                       16.0486
_cell_length_c                        9.2267
_cell_angle_alpha                   90.0000
_cell_angle_beta                    90.0000
_cell_angle_gamma                   90.0000

loop_
_atom_site_label
_atom_site_fract_x
_atom_site_fract_y
_atom_site_fract_z
_atom_site_occupancy
  Zn          0.18050      0.18050      0.00000  1.0000
  Zn          0.68050      0.68050      0.50000  1.0000
  Zn          0.32502      0.32501      0.50000  1.0000
  Zn          0.82502      0.82501      0.00000  1.0000
  Zn          0.32502      0.68050      0.50000  1.0000
  Zn          0.82502      0.18050      0.00000  1.0000
  Zn          0.68050      0.32501      0.50000  1.0000
  Zn          0.18050      0.82501      0.00000  1.0000
  C1          0.16602      0.00276      0.05352  1.0000
  N1          0.21261      0.93224      0.04274  1.0000
  N1          0.21261      0.07327      0.04274  1.0000
  C2          0.29335      0.95981      0.02407  1.0000
  C2          0.29335      0.04570      0.02407  1.0000
  N2          0.07812      0.00276      0.07384  1.0000
  H1          0.34488      0.08888      0.01216  1.0000
  H1          0.34488      0.91663      0.01216  1.0000
  O1          0.04179      0.93376      0.08225  1.0000
  O1          0.04179      0.07175      0.08225  1.0000
  C1          0.66602      0.50276      0.55352  1.0000
  N1          0.71261      0.43224      0.54274  1.0000
  N1          0.71261      0.57327      0.54274  1.0000
  C2          0.79335      0.45981      0.52407  1.0000
  C2          0.79335      0.54570      0.52407  1.0000
  N2          0.57812      0.50276      0.57384  1.0000
  H1          0.84488      0.58888      0.51216  1.0000
  H1          0.84488      0.41663      0.51216  1.0000
  O1          0.54179      0.43376      0.58225  1.0000
  O1          0.54179      0.57175      0.58225  1.0000
  C1          0.83950      0.00276      0.05352  1.0000
  N1          0.79291      0.07327      0.04274  1.0000
  N1          0.79291      0.93224      0.04274  1.0000
  C2          0.71217      0.04570      0.02405  1.0000
  C2          0.71217      0.95981      0.02405  1.0000
  N2          0.92739      0.00276      0.07387  1.0000
  H1          0.66064      0.91663      0.01212  1.0000
  H1          0.66064      0.08888      0.01212  1.0000
  O1          0.96372      0.07175      0.08228  1.0000
  O1          0.96372      0.93376      0.08228  1.0000
  C1          0.33950      0.50276      0.55352  1.0000
  N1          0.29291      0.57327      0.54274  1.0000
  N1          0.29291      0.43224      0.54274  1.0000
  C2          0.21217      0.54570      0.52405  1.0000
  C2          0.21217      0.45981      0.52405  1.0000
  N2          0.42739      0.50276      0.57387  1.0000
  H1          0.16064      0.41663      0.51212  1.0000
  H1          0.16064      0.58888      0.51212  1.0000
  O1          0.46372      0.57175      0.58228  1.0000
  O1          0.46372      0.43376      0.58228  1.0000
  C1          0.00276      0.20641      0.96169  1.0000
  N1          0.93225      0.21261      0.04274  1.0000
  N1          0.07327      0.21261      0.04274  1.0000
  C2          0.95981      0.22336      0.18317  1.0000
  C2          0.04571      0.22336      0.18317  1.0000
  N2          0.00276      0.19472      0.80882  1.0000
  H1          0.08889      0.23022      0.27279  1.0000
  H1          0.91663      0.23022      0.27279  1.0000
  O1          0.93377      0.18988      0.74563  1.0000
  O1          0.07175      0.18988      0.74563  1.0000
  C1          0.50276      0.70641      0.46169  1.0000
  N1          0.43225      0.71261      0.54274  1.0000
  N1          0.57327      0.71261      0.54274  1.0000
  C2          0.45981      0.72336      0.68317  1.0000
  C2          0.54571      0.72336      0.68317  1.0000
  N2          0.50276      0.69472      0.30882  1.0000
  H1          0.58889      0.73022      0.77279  1.0000
  H1          0.41663      0.73022      0.77279  1.0000
  O1          0.43377      0.68988      0.24563  1.0000
  O1          0.57175      0.68988      0.24563  1.0000
  C1          0.00276      0.79910      0.96169  1.0000
  N1          0.07327      0.79290      0.04274  1.0000
  N1          0.93225      0.79290      0.04274  1.0000
  C2          0.04571      0.78215      0.18317  1.0000
  C2          0.95981      0.78215      0.18317  1.0000
  N2          0.00276      0.81079      0.80882  1.0000
  H1          0.91663      0.77529      0.27279  1.0000
  H1          0.08889      0.77529      0.27279  1.0000
  O1          0.07175      0.81563      0.74563  1.0000
  O1          0.93377      0.81563      0.74563  1.0000
  C1          0.50276      0.29910      0.46169  1.0000
  N1          0.57327      0.29290      0.54274  1.0000
  N1          0.43225      0.29290      0.54274  1.0000
  C2          0.54571      0.28215      0.68317  1.0000
  C2          0.45981      0.28215      0.68317  1.0000
  N2          0.50276      0.31079      0.30882  1.0000
  H1          0.41663      0.27529      0.77279  1.0000
  H1          0.58889      0.27529      0.77279  1.0000
  O1          0.57175      0.31563      0.24563  1.0000
  O1          0.43377      0.31563      0.24563  1.0000
  C1          0.23341      0.28041      0.24275  1.0000
  N1          0.30495      0.30495      0.30920  1.0000
  N1          0.24717      0.24717      0.10929  1.0000
  C2          0.36758      0.28613      0.21208  1.0000
  C2          0.33238      0.25093      0.09031  1.0000
  N2          0.15294      0.28860      0.30594  1.0000
  H1          0.36186      0.22844      0.99205  1.0000
  H1          0.43244      0.29901      0.23624  1.0000
  O1          0.14795      0.32026      0.42987  1.0000
  O1          0.09141      0.26372      0.23426  1.0000
  C1          0.73341      0.78041      0.74275  1.0000
  N1          0.80495      0.80495      0.80920  1.0000
  N1          0.74717      0.74717      0.60929  1.0000
  C2          0.86758      0.78613      0.71208  1.0000
  C2          0.83238      0.75093      0.59031  1.0000
  N2          0.65294      0.78860      0.80594  1.0000
  H1          0.86186      0.72844      0.49205  1.0000
  H1          0.93244      0.79901      0.73624  1.0000
  O1          0.64795      0.82026      0.92987  1.0000
  O1          0.59141      0.76372      0.73426  1.0000
  C1          0.22511      0.27211      0.74275  1.0000
  N1          0.25835      0.25834      0.60929  1.0000
  N1          0.20056      0.20056      0.80920  1.0000
  C2          0.25458      0.17313      0.59031  1.0000
  C2          0.21939      0.13794      0.71208  1.0000
  N2          0.21692      0.35258      0.80594  1.0000
  H1          0.20650      0.07308      0.73625  1.0000
  H1          0.27708      0.14365      0.49205  1.0000
  O1          0.24180      0.41410      0.73425  1.0000
  O1          0.18526      0.35757      0.92986  1.0000
  C1          0.72511      0.77211      0.24275  1.0000
  N1          0.75835      0.75834      0.10929  1.0000
  N1          0.70056      0.70056      0.30920  1.0000
  C2          0.75458      0.67313      0.09031  1.0000
  C2          0.71939      0.63794      0.21208  1.0000
  N2          0.71692      0.85258      0.30594  1.0000
  H1          0.70650      0.57308      0.23625  1.0000
  H1          0.77708      0.64365      0.99205  1.0000
  O1          0.74180      0.91410      0.23425  1.0000
  O1          0.68526      0.85757      0.42986  1.0000
  C1          0.22511      0.73340      0.74275  1.0000
  N1          0.20056      0.80495      0.80920  1.0000
  N1          0.25835      0.74717      0.60929  1.0000
  C2          0.21939      0.86757      0.71208  1.0000
  C2          0.25458      0.83238      0.59031  1.0000
  N2          0.21692      0.65293      0.80594  1.0000
  H1          0.27708      0.86186      0.49205  1.0000
  H1          0.20650      0.93243      0.73625  1.0000
  O1          0.18526      0.64794      0.92986  1.0000
  O1          0.24180      0.59141      0.73425  1.0000
  C1          0.72511      0.23340      0.24275  1.0000
  N1          0.70056      0.30495      0.30920  1.0000
  N1          0.75835      0.24717      0.10929  1.0000
  C2          0.71939      0.36757      0.21208  1.0000
  C2          0.75458      0.33238      0.09031  1.0000
  N2          0.71692      0.15293      0.30594  1.0000
  H1          0.77708      0.36186      0.99205  1.0000
  H1          0.70650      0.43243      0.23625  1.0000
  O1          0.68526      0.14794      0.42986  1.0000
  O1          0.74180      0.09141      0.23425  1.0000
  C1          0.73341      0.22510      0.74275  1.0000
  N1          0.74717      0.25834      0.60929  1.0000
  N1          0.80495      0.20056      0.80920  1.0000
  C2          0.83238      0.25458      0.59031  1.0000
  C2          0.86758      0.21938      0.71208  1.0000
  N2          0.65294      0.21691      0.80594  1.0000
  H1          0.93244      0.20650      0.73624  1.0000
  H1          0.86186      0.27707      0.49205  1.0000
  O1          0.59141      0.24179      0.73426  1.0000
  O1          0.64795      0.18525      0.92987  1.0000
  C1          0.23341      0.72510      0.24275  1.0000
  N1          0.24717      0.75834      0.10929  1.0000
  N1          0.30495      0.70056      0.30920  1.0000
  C2          0.33238      0.75458      0.09031  1.0000
  C2          0.36758      0.71938      0.21208  1.0000
  N2          0.15294      0.71691      0.30594  1.0000
  H1          0.43244      0.70650      0.23624  1.0000
  H1          0.36186      0.77707      0.99205  1.0000
  O1          0.09141      0.74179      0.23426  1.0000
  O1          0.14795      0.68525      0.42987  1.0000
