data_cif

_audit_creation_method             'generated by GULP'

_symmetry_space_group_name_H-M     'P 1'
_symmetry_Int_Tables_number        1
_symmetry_cell_setting             triclinic

_cell_length_a                       25.0597
_cell_length_b                       25.0597
_cell_length_c                       15.3097
_cell_angle_alpha                   90.0000
_cell_angle_beta                    90.0000
_cell_angle_gamma                  120.0000

loop_
_atom_site_label
_atom_site_fract_x
_atom_site_fract_y
_atom_site_fract_z
_atom_site_occupancy
  Zn          0.88521      0.55246      0.18711  1.0000
  Zn          0.12909      0.66661      0.31269  1.0000
  Zn          0.44753      0.33275      0.18710  1.0000
  Zn          0.33336      0.46246      0.31269  1.0000
  Zn          0.66722      0.11477      0.18711  1.0000
  Zn          0.53751      0.87089      0.31269  1.0000
  Zn          0.11476      0.44752      0.18711  1.0000
  Zn          0.87088      0.33337      0.31269  1.0000
  Zn          0.55245      0.66722      0.18710  1.0000
  Zn          0.66661      0.53752      0.31269  1.0000
  Zn          0.33275      0.88521      0.18711  1.0000
  Zn          0.46246      0.12908      0.31269  1.0000
  Zn          0.11476      0.44753      0.81290  1.0000
  Zn          0.87089      0.33337      0.68731  1.0000
  Zn          0.55245      0.66722      0.81291  1.0000
  Zn          0.66661      0.53752      0.68732  1.0000
  Zn          0.33275      0.88521      0.81290  1.0000
  Zn          0.46246      0.12908      0.68732  1.0000
  Zn          0.88521      0.55245      0.81291  1.0000
  Zn          0.12909      0.66661      0.68732  1.0000
  Zn          0.44753      0.33275      0.81291  1.0000
  Zn          0.33336      0.46246      0.68732  1.0000
  Zn          0.66722      0.11477      0.81290  1.0000
  Zn          0.53752      0.87089      0.68732  1.0000
  C1          0.57941      0.13841      0.27475  1.0000
  N1          0.53388      0.15095      0.25513  1.0000
  N1          0.61581      0.14522      0.20488  1.0000
  C2          0.54198      0.16661      0.16776  1.0000
  C2          0.59188      0.16312      0.13716  1.0000
  H1          0.58598      0.12449      0.33908  1.0000
  C3          0.60960      0.17669      0.05107  1.0000
  C3          0.50981      0.18366      0.11227  1.0000
  C4          0.57743      0.19375      0.99557  1.0000
  C4          0.52753      0.19723      0.02618  1.0000
  H2          0.65087      0.17381      0.02576  1.0000
  H2          0.46855      0.18655      0.13758  1.0000
  H3          0.59209      0.20497      0.92435  1.0000
  H3          0.50092      0.21135      0.98027  1.0000
  C1          0.01302      0.62975      0.22985  1.0000
  N1          0.05027      0.64927      0.30127  1.0000
  N1          0.95231      0.60342      0.25083  1.0000
  C2          0.01079      0.63441      0.37148  1.0000
  C2          0.95112      0.60648      0.34075  1.0000
  H1          0.02989      0.63464      0.16342  1.0000
  C3          0.90274      0.58714      0.39849  1.0000
  C3          0.02205      0.64299      0.45993  1.0000
  C4          0.91399      0.59572      0.48694  1.0000
  C4          0.97366      0.62365      0.51767  1.0000
  H2          0.85339      0.56405      0.37309  1.0000
  H2          0.07139      0.66608      0.48534  1.0000
  H3          0.87396      0.57972      0.53471  1.0000
  H3          0.98297      0.63074      0.59084  1.0000
  C1          0.78733      0.55519      0.28080  1.0000
  N1          0.74348      0.57122      0.26781  1.0000
  N1          0.83122      0.57722      0.21741  1.0000
  C2          0.76068      0.60537      0.19177  1.0000
  C2          0.81412      0.60902      0.16107  1.0000
  H1          0.78729      0.52783      0.33571  1.0000
  C3          0.84087      0.64096      0.08531  1.0000
  C3          0.73401      0.63365      0.14670  1.0000
  C4          0.81421      0.66924      0.04023  1.0000
  C4          0.76076      0.66559      0.07093  1.0000
  H2          0.88507      0.64398      0.05992  1.0000
  H2          0.68982      0.63063      0.17209  1.0000
  H3          0.83634      0.69566      0.97755  1.0000
  H3          0.73870      0.68898      0.03364  1.0000
  C1          0.86156      0.44100      0.27474  1.0000
  N1          0.84902      0.38293      0.25511  1.0000
  N1          0.85475      0.47059      0.20487  1.0000
  C2          0.83338      0.37538      0.16774  1.0000
  C2          0.83688      0.42878      0.13714  1.0000
  H1          0.87546      0.46148      0.33908  1.0000
  C3          0.82332      0.43293      0.05104  1.0000
  C3          0.81634      0.32617      0.11224  1.0000
  C4          0.80628      0.38371      0.99554  1.0000
  C4          0.80279      0.33032      0.02615  1.0000
  H2          0.82621      0.47708      0.02574  1.0000
  H2          0.81345      0.28201      0.13755  1.0000
  H3          0.79507      0.38715      0.92432  1.0000
  H3          0.78869      0.28960      0.98023  1.0000
  C1          0.37023      0.38327      0.22984  1.0000
  N1          0.35071      0.40099      0.30127  1.0000
  N1          0.39657      0.34889      0.25082  1.0000
  C2          0.36558      0.37637      0.37147  1.0000
  C2          0.39351      0.34463      0.34075  1.0000
  H1          0.36534      0.39524      0.16342  1.0000
  C3          0.41285      0.31559      0.39849  1.0000
  C3          0.35700      0.37905      0.45993  1.0000
  C4          0.40428      0.31828      0.48694  1.0000
  C4          0.37635      0.35001      0.51766  1.0000
  H2          0.43595      0.28935      0.37308  1.0000
  H2          0.33390      0.40529      0.48534  1.0000
  H3          0.42029      0.29425      0.53470  1.0000
  H3          0.36926      0.35223      0.59084  1.0000
  C1          0.44480      0.23214      0.28080  1.0000
  N1          0.42876      0.17226      0.26782  1.0000
  N1          0.42277      0.25401      0.21741  1.0000
  C2          0.39460      0.15530      0.19179  1.0000
  C2          0.39095      0.20509      0.16109  1.0000
  H1          0.47218      0.25947      0.33570  1.0000
  C3          0.35900      0.19991      0.08533  1.0000
  C3          0.36630      0.10035      0.14673  1.0000
  C4          0.33071      0.14495      0.04027  1.0000
  C4          0.33436      0.09516      0.07097  1.0000
  H2          0.35598      0.24108      0.05994  1.0000
  H2          0.36932      0.05917      0.17212  1.0000
  H3          0.30428      0.14066      0.97760  1.0000
  H3          0.31095      0.04970      0.03369  1.0000
  C1          0.55898      0.42056      0.27475  1.0000
  N1          0.61705      0.46609      0.25513  1.0000
  N1          0.52940      0.38416      0.20488  1.0000
  C2          0.62461      0.45799      0.16776  1.0000
  C2          0.57122      0.40809      0.13716  1.0000
  H1          0.53849      0.41400      0.33908  1.0000
  C3          0.56708      0.39037      0.05107  1.0000
  C3          0.67384      0.49015      0.11227  1.0000
  C4          0.61631      0.42253      0.99558  1.0000
  C4          0.66970      0.47243      0.02619  1.0000
  H2          0.52293      0.34910      0.02576  1.0000
  H2          0.71799      0.53142      0.13758  1.0000
  H3          0.61288      0.40787      0.92436  1.0000
  H3          0.71042      0.49904      0.98028  1.0000
  C1          0.61670      0.98696      0.22984  1.0000
  N1          0.59899      0.94971      0.30127  1.0000
  N1          0.65109      0.04767      0.25083  1.0000
  C2          0.62361      0.98919      0.37147  1.0000
  C2          0.65535      0.04886      0.34075  1.0000
  H1          0.60472      0.97009      0.16342  1.0000
  C3          0.68440      0.09725      0.39849  1.0000
  C3          0.62094      0.97794      0.45992  1.0000
  C4          0.68172      0.08599      0.48694  1.0000
  C4          0.64999      0.02632      0.51766  1.0000
  H2          0.71064      0.14659      0.37308  1.0000
  H2          0.59470      0.92859      0.48533  1.0000
  H3          0.70576      0.12602      0.53470  1.0000
  H3          0.64778      0.01701      0.59083  1.0000
  C1          0.76782      0.21266      0.28081  1.0000
  N1          0.82770      0.25649      0.26783  1.0000
  N1          0.74596      0.16875      0.21742  1.0000
  C2          0.84467      0.23928      0.19181  1.0000
  C2          0.79488      0.18584      0.16111  1.0000
  H1          0.74049      0.21271      0.33570  1.0000
  C3          0.80006      0.15907      0.08536  1.0000
  C3          0.89962      0.26594      0.14675  1.0000
  C4          0.85502      0.18573      0.04030  1.0000
  C4          0.90481      0.23917      0.07100  1.0000
  H2          0.75889      0.11488      0.05997  1.0000
  H2          0.94080      0.31013      0.17214  1.0000
  H3          0.85931      0.16359      0.97764  1.0000
  H3          0.95028      0.26122      0.03373  1.0000
  C1          0.44614      0.88522      0.21796  1.0000
  N1          0.38416      0.85475      0.20488  1.0000
  N1          0.46609      0.84902      0.25512  1.0000
  C2          0.36376      0.79588      0.23556  1.0000
  C2          0.41366      0.79239      0.26616  1.0000
  H1          0.47635      0.93313      0.20066  1.0000
  C3          0.40535      0.73792      0.30050  1.0000
  C3          0.30557      0.74489      0.23930  1.0000
  C4          0.34716      0.68693      0.30424  1.0000
  C4          0.29726      0.69042      0.27364  1.0000
  H2          0.44662      0.73503      0.32581  1.0000
  H2          0.26430      0.74778      0.21399  1.0000
  H3          0.34029      0.64187      0.33265  1.0000
  H3          0.24912      0.64825      0.27673  1.0000
  C1          0.98694      0.37024      0.22984  1.0000
  N1          0.94970      0.35071      0.30127  1.0000
  N1          0.04766      0.39656      0.25083  1.0000
  C2          0.98918      0.36556      0.37147  1.0000
  C2          0.04885      0.39349      0.34075  1.0000
  H1          0.97007      0.36535      0.16342  1.0000
  C3          0.09723      0.41282      0.39849  1.0000
  C3          0.97792      0.35698      0.45992  1.0000
  C4          0.08597      0.40424      0.48694  1.0000
  C4          0.02631      0.37631      0.51766  1.0000
  H2          0.14658      0.43592      0.37308  1.0000
  H2          0.92858      0.33388      0.48533  1.0000
  H3          0.12600      0.42024      0.53470  1.0000
  H3          0.01700      0.36921      0.59084  1.0000
  C1          0.23140      0.45478      0.21640  1.0000
  N1          0.16875      0.42276      0.21741  1.0000
  N1          0.25649      0.42876      0.26781  1.0000
  C2          0.15334      0.37365      0.27267  1.0000
  C2          0.20678      0.37731      0.30337  1.0000
  H1          0.25841      0.49650      0.17872  1.0000
  C3          0.20377      0.33323      0.36018  1.0000
  C3          0.09691      0.32592      0.29879  1.0000
  C4          0.14734      0.28550      0.38629  1.0000
  C4          0.09390      0.28184      0.35559  1.0000
  H2          0.24797      0.33625      0.38557  1.0000
  H2          0.05271      0.32290      0.27340  1.0000
  H3          0.14485      0.24903      0.43328  1.0000
  H3          0.04722      0.24236      0.37719  1.0000
  C1          0.11475      0.56090      0.21797  1.0000
  N1          0.14522      0.52939      0.20487  1.0000
  N1          0.15095      0.61705      0.25511  1.0000
  C2          0.20410      0.56787      0.23552  1.0000
  C2          0.20759      0.62126      0.26613  1.0000
  H1          0.06683      0.54320      0.20068  1.0000
  C3          0.26207      0.66743      0.30044  1.0000
  C3          0.25508      0.56067      0.23925  1.0000
  C4          0.31305      0.66023      0.30417  1.0000
  C4          0.30956      0.60684      0.27357  1.0000
  H2          0.26495      0.71158      0.32575  1.0000
  H2          0.25219      0.51651      0.21394  1.0000
  H3          0.35812      0.69842      0.33256  1.0000
  H3          0.35174      0.60088      0.27665  1.0000
  C1          0.62974      0.61671      0.22985  1.0000
  N1          0.64926      0.59899      0.30127  1.0000
  N1          0.60340      0.65109      0.25082  1.0000
  C2          0.63439      0.62360      0.37148  1.0000
  C2          0.60646      0.65534      0.34075  1.0000
  H1          0.63464      0.60473      0.16342  1.0000
  C3          0.58711      0.68438      0.39848  1.0000
  C3          0.64296      0.62092      0.45993  1.0000
  C4          0.59568      0.68169      0.48694  1.0000
  C4          0.62361      0.64996      0.51767  1.0000
  H2          0.56401      0.71062      0.37307  1.0000
  H2          0.66606      0.59468      0.48534  1.0000
  H3          0.57967      0.70571      0.53470  1.0000
  H3          0.63070      0.64774      0.59084  1.0000
  C1          0.54519      0.77661      0.21640  1.0000
  N1          0.57721      0.74597      0.21741  1.0000
  N1          0.57121      0.82771      0.26781  1.0000
  C2          0.62631      0.77967      0.27268  1.0000
  C2          0.62266      0.82946      0.30338  1.0000
  H1          0.50348      0.76191      0.17871  1.0000
  C3          0.66674      0.87052      0.36019  1.0000
  C3          0.67404      0.77096      0.29880  1.0000
  C4          0.71446      0.86182      0.38632  1.0000
  C4          0.71812      0.81203      0.35561  1.0000
  H2          0.66372      0.91170      0.38558  1.0000
  H2          0.67706      0.72979      0.27341  1.0000
  H3          0.75093      0.89579      0.43332  1.0000
  H3          0.75760      0.80483      0.37723  1.0000
  C1          0.43906      0.55383      0.21796  1.0000
  N1          0.47058      0.61581      0.20487  1.0000
  N1          0.38292      0.53388      0.25512  1.0000
  C2          0.43211      0.63621      0.23554  1.0000
  C2          0.37872      0.58632      0.26615  1.0000
  H1          0.45676      0.52361      0.20066  1.0000
  C3          0.33255      0.59462      0.30048  1.0000
  C3          0.43931      0.69440      0.23928  1.0000
  C4          0.33976      0.65281      0.30422  1.0000
  C4          0.39315      0.70271      0.27362  1.0000
  H2          0.28840      0.55336      0.32579  1.0000
  H2          0.48347      0.73567      0.21397  1.0000
  H3          0.30157      0.65969      0.33263  1.0000
  H3          0.39911      0.75085      0.27671  1.0000
  C1          0.38327      0.01302      0.22985  1.0000
  N1          0.40099      0.05026      0.30128  1.0000
  N1          0.34889      0.95230      0.25083  1.0000
  C2          0.37637      0.01078      0.37148  1.0000
  C2          0.34464      0.95111      0.34076  1.0000
  H1          0.39524      0.02989      0.16342  1.0000
  C3          0.31560      0.90273      0.39849  1.0000
  C3          0.37905      0.02204      0.45993  1.0000
  C4          0.31828      0.91398      0.48695  1.0000
  C4          0.35001      0.97365      0.51767  1.0000
  H2          0.28935      0.85338      0.37309  1.0000
  H2          0.40530      0.07138      0.48534  1.0000
  H3          0.29426      0.87395      0.53471  1.0000
  H3          0.35223      0.98296      0.59085  1.0000
  C1          0.22336      0.76857      0.21640  1.0000
  N1          0.25401      0.83123      0.21742  1.0000
  N1          0.17227      0.74349      0.26782  1.0000
  C2          0.22031      0.84663      0.27270  1.0000
  C2          0.17052      0.79319      0.30340  1.0000
  H1          0.23806      0.74156      0.17871  1.0000
  C3          0.12946      0.79620      0.36022  1.0000
  C3          0.22902      0.90306      0.29883  1.0000
  C4          0.13817      0.85263      0.38635  1.0000
  C4          0.18796      0.90607      0.35565  1.0000
  H2          0.08829      0.75200      0.38561  1.0000
  H2          0.27020      0.94726      0.27344  1.0000
  H3          0.10420      0.85512      0.43336  1.0000
  H3          0.19516      0.95276      0.37727  1.0000
  C1          0.44615      0.88522      0.78204  1.0000
  N1          0.46609      0.84902      0.74489  1.0000
  N1          0.38417      0.85475      0.79513  1.0000
  C2          0.41366      0.79239      0.73386  1.0000
  C2          0.36376      0.79588      0.76446  1.0000
  H1          0.47636      0.93314      0.79935  1.0000
  C3          0.30557      0.74489      0.76072  1.0000
  C3          0.40536      0.73792      0.69952  1.0000
  C4          0.29727      0.69042      0.72638  1.0000
  C4          0.34717      0.68693      0.69578  1.0000
  H2          0.26431      0.74778      0.78603  1.0000
  H2          0.44663      0.73503      0.67421  1.0000
  H3          0.24913      0.64824      0.72329  1.0000
  H3          0.34030      0.64187      0.66738  1.0000
  C1          0.00079      0.40467      0.72074  1.0000
  N1          0.94971      0.35071      0.69874  1.0000
  N1          0.04766      0.39657      0.74919  1.0000
  C2          0.96521      0.30590      0.71419  1.0000
  C2          0.02488      0.33383      0.74492  1.0000
  H1          0.00381      0.44929      0.71610  1.0000
  C3          0.05137      0.29869      0.76538  1.0000
  C3          0.93206      0.24284      0.70394  1.0000
  C4          0.01823      0.23564      0.75513  1.0000
  C4          0.95856      0.20771      0.72440  1.0000
  H2          0.10072      0.32179      0.79079  1.0000
  H2          0.88272      0.21974      0.67853  1.0000
  H3          0.04015      0.20657      0.77206  1.0000
  H3          0.93114      0.15554      0.71592  1.0000
  C1          0.23140      0.45478      0.78361  1.0000
  N1          0.25648      0.42876      0.73220  1.0000
  N1          0.16875      0.42277      0.78260  1.0000
  C2          0.20678      0.37731      0.69664  1.0000
  C2          0.15334      0.37366      0.72734  1.0000
  H1          0.25841      0.49650      0.82128  1.0000
  C3          0.09691      0.32593      0.70123  1.0000
  C3          0.20377      0.33323      0.63984  1.0000
  C4          0.09390      0.28185      0.64442  1.0000
  C4          0.14734      0.28550      0.61372  1.0000
  H2          0.05271      0.32291      0.72661  1.0000
  H2          0.24796      0.33625      0.61445  1.0000
  H3          0.04721      0.24236      0.62282  1.0000
  H3          0.14485      0.24903      0.56673  1.0000
  C1          0.11475      0.56091      0.78204  1.0000
  N1          0.15095      0.61705      0.74489  1.0000
  N1          0.14522      0.52940      0.79514  1.0000
  C2          0.20759      0.62126      0.73388  1.0000
  C2          0.20410      0.56787      0.76448  1.0000
  H1          0.06683      0.54320      0.79933  1.0000
  C3          0.25508      0.56067      0.76075  1.0000
  C3          0.26206      0.66743      0.69956  1.0000
  C4          0.30956      0.60684      0.72643  1.0000
  C4          0.31305      0.66023      0.69583  1.0000
  H2          0.25219      0.51651      0.78606  1.0000
  H2          0.26495      0.71159      0.67425  1.0000
  H3          0.35174      0.60088      0.72335  1.0000
  H3          0.35812      0.69842      0.66744  1.0000
  C1          0.59530      0.59610      0.72075  1.0000
  N1          0.64926      0.59899      0.69873  1.0000
  N1          0.60340      0.65109      0.74918  1.0000
  C2          0.69407      0.65931      0.71414  1.0000
  C2          0.66614      0.69105      0.74487  1.0000
  H1          0.55069      0.55450      0.71615  1.0000
  C3          0.70127      0.75268      0.76530  1.0000
  C3          0.75712      0.68923      0.70385  1.0000
  C4          0.76432      0.78260      0.75501  1.0000
  C4          0.79225      0.75087      0.72428  1.0000
  H2          0.67817      0.77893      0.79071  1.0000
  H2          0.78022      0.66299      0.67844  1.0000
  H3          0.79338      0.83359      0.77190  1.0000
  H3          0.84441      0.77562      0.71576  1.0000
  C1          0.54520      0.77661      0.78361  1.0000
  N1          0.57122      0.82771      0.73220  1.0000
  N1          0.57721      0.74596      0.78261  1.0000
  C2          0.62267      0.82946      0.69663  1.0000
  C2          0.62632      0.77967      0.72734  1.0000
  H1          0.50348      0.76191      0.82129  1.0000
  C3          0.67405      0.77096      0.70122  1.0000
  C3          0.66675      0.87052      0.63983  1.0000
  C4          0.71812      0.81203      0.64441  1.0000
  C4          0.71447      0.86182      0.61371  1.0000
  H2          0.67706      0.72978      0.72661  1.0000
  H2          0.66373      0.91170      0.61444  1.0000
  H3          0.75761      0.80482      0.62280  1.0000
  H3          0.75094      0.89579      0.56671  1.0000
  C1          0.43906      0.55383      0.78205  1.0000
  N1          0.38292      0.53389      0.74489  1.0000
  N1          0.47058      0.61581      0.79514  1.0000
  C2          0.37872      0.58632      0.73384  1.0000
  C2          0.43211      0.63622      0.76445  1.0000
  H1          0.45676      0.52361      0.79936  1.0000
  C3          0.43932      0.69441      0.76070  1.0000
  C3          0.33256      0.59463      0.69950  1.0000
  C4          0.39316      0.70272      0.72636  1.0000
  C4          0.33977      0.65282      0.69575  1.0000
  H2          0.48348      0.73567      0.78601  1.0000
  H2          0.28841      0.55336      0.67419  1.0000
  H3          0.39912      0.75086      0.72325  1.0000
  H3          0.30158      0.65969      0.66734  1.0000
  C1          0.40387      0.99918      0.72075  1.0000
  N1          0.40099      0.05026      0.69873  1.0000
  N1          0.34889      0.95230      0.74918  1.0000
  C2          0.34067      0.03475      0.71416  1.0000
  C2          0.30893      0.97508      0.74488  1.0000
  H1          0.44547      0.99617      0.71613  1.0000
  C3          0.24729      0.94858      0.76532  1.0000
  C3          0.31075      0.06789      0.70388  1.0000
  C4          0.21738      0.98172      0.75504  1.0000
  C4          0.24912      0.04138      0.72432  1.0000
  H2          0.22105      0.89924      0.79073  1.0000
  H2          0.33700      0.11723      0.67847  1.0000
  H3          0.16639      0.95979      0.77195  1.0000
  H3          0.22437      0.06880      0.71581  1.0000
  C1          0.22336      0.76857      0.78361  1.0000
  N1          0.17227      0.74349      0.73218  1.0000
  N1          0.25401      0.83123      0.78259  1.0000
  C2          0.17053      0.79319      0.69659  1.0000
  C2          0.22032      0.84663      0.72729  1.0000
  H1          0.23806      0.74156      0.82131  1.0000
  C3          0.22903      0.90307      0.70115  1.0000
  C3          0.12947      0.79620      0.63976  1.0000
  C4          0.18798      0.90607      0.64432  1.0000
  C4          0.13819      0.85263      0.61362  1.0000
  H2          0.27021      0.94726      0.72654  1.0000
  H2          0.08830      0.75201      0.61437  1.0000
  H3          0.19518      0.95276      0.62270  1.0000
  H3          0.10422      0.85512      0.56661  1.0000
  C1          0.57941      0.13841      0.72526  1.0000
  N1          0.61581      0.14522      0.79513  1.0000
  N1          0.53388      0.15095      0.74488  1.0000
  C2          0.59188      0.16312      0.86285  1.0000
  C2          0.54198      0.16661      0.83225  1.0000
  H1          0.58598      0.12449      0.66093  1.0000
  C3          0.50981      0.18366      0.88774  1.0000
  C3          0.60960      0.17669      0.94894  1.0000
  C4          0.52753      0.19723      0.97383  1.0000
  C4          0.57743      0.19375      0.00444  1.0000
  H2          0.46855      0.18655      0.86243  1.0000
  H2          0.65087      0.17381      0.97425  1.0000
  H3          0.50092      0.21135      0.01974  1.0000
  H3          0.59209      0.20497      0.07566  1.0000
  C1          0.99919      0.59531      0.72075  1.0000
  N1          0.05027      0.64927      0.69875  1.0000
  N1          0.95231      0.60341      0.74919  1.0000
  C2          0.03476      0.69408      0.71419  1.0000
  C2          0.97510      0.66615      0.74491  1.0000
  H1          0.99617      0.55069      0.71612  1.0000
  C3          0.94860      0.70129      0.76537  1.0000
  C3          0.06791      0.75713      0.70393  1.0000
  C4          0.98174      0.76434      0.75511  1.0000
  C4          0.04141      0.79227      0.72438  1.0000
  H2          0.89926      0.67819      0.79078  1.0000
  H2          0.11725      0.78023      0.67852  1.0000
  H3          0.95982      0.79341      0.77203  1.0000
  H3          0.06883      0.84443      0.71589  1.0000
  C1          0.78733      0.55518      0.71921  1.0000
  N1          0.83123      0.57721      0.78261  1.0000
  N1          0.74349      0.57122      0.73220  1.0000
  C2          0.81413      0.60902      0.83894  1.0000
  C2          0.76069      0.60537      0.80823  1.0000
  H1          0.78729      0.52782      0.66431  1.0000
  C3          0.73402      0.63366      0.85331  1.0000
  C3          0.84088      0.64096      0.91470  1.0000
  C4          0.76078      0.66559      0.92907  1.0000
  C4          0.81422      0.66924      0.95977  1.0000
  H2          0.68983      0.63064      0.82792  1.0000
  H2          0.88508      0.64398      0.94009  1.0000
  H3          0.73872      0.68900      0.96636  1.0000
  H3          0.83635      0.69566      0.02245  1.0000
  C1          0.86156      0.44100      0.72526  1.0000
  N1          0.85476      0.47058      0.79514  1.0000
  N1          0.84903      0.38293      0.74489  1.0000
  C2          0.83687      0.42876      0.86286  1.0000
  C2          0.83338      0.37537      0.83226  1.0000
  H1          0.87547      0.46148      0.66093  1.0000
  C3          0.81633      0.32615      0.88775  1.0000
  C3          0.82331      0.43291      0.94896  1.0000
  C4          0.80277      0.33030      0.97385  1.0000
  C4          0.80626      0.38369      0.00445  1.0000
  H2          0.81345      0.28200      0.86244  1.0000
  H2          0.82620      0.47706      0.97427  1.0000
  H3          0.78867      0.28958      0.01976  1.0000
  H3          0.79505      0.38712      0.07568  1.0000
  C1          0.40467      0.40387      0.72075  1.0000
  N1          0.35071      0.40099      0.69874  1.0000
  N1          0.39657      0.34889      0.74918  1.0000
  C2          0.30591      0.34066      0.71415  1.0000
  C2          0.33384      0.30893      0.74487  1.0000
  H1          0.44929      0.44547      0.71615  1.0000
  C3          0.29871      0.24729      0.76530  1.0000
  C3          0.24285      0.31075      0.70386  1.0000
  C4          0.23565      0.21738      0.75501  1.0000
  C4          0.20772      0.24911      0.72429  1.0000
  H2          0.32181      0.22105      0.79071  1.0000
  H2          0.21975      0.33699      0.67845  1.0000
  H3          0.20659      0.16638      0.77191  1.0000
  H3          0.15556      0.22436      0.71578  1.0000
  C1          0.44480      0.23214      0.71921  1.0000
  N1          0.42277      0.25401      0.78260  1.0000
  N1          0.42876      0.17226      0.73219  1.0000
  C2          0.39095      0.20509      0.83892  1.0000
  C2          0.39460      0.15530      0.80822  1.0000
  H1          0.47218      0.25947      0.66431  1.0000
  C3          0.36630      0.10035      0.85328  1.0000
  C3          0.35900      0.19991      0.91468  1.0000
  C4          0.33436      0.09516      0.92904  1.0000
  C4          0.33071      0.14495      0.95974  1.0000
  H2          0.36932      0.05917      0.82789  1.0000
  H2          0.35598      0.24108      0.94007  1.0000
  H3          0.31095      0.04970      0.96632  1.0000
  H3          0.30428      0.14066      0.02241  1.0000
  C1          0.55898      0.42056      0.72527  1.0000
  N1          0.52940      0.38417      0.79514  1.0000
  N1          0.61705      0.46609      0.74489  1.0000
  C2          0.57122      0.40810      0.86286  1.0000
  C2          0.62461      0.45800      0.83225  1.0000
  H1          0.53850      0.41400      0.66093  1.0000
  C3          0.67383      0.49017      0.88775  1.0000
  C3          0.56707      0.39038      0.94895  1.0000
  C4          0.66969      0.47245      0.97384  1.0000
  C4          0.61630      0.42255      0.00445  1.0000
  H2          0.71798      0.53143      0.86244  1.0000
  H2          0.52292      0.34911      0.97426  1.0000
  H3          0.71041      0.49906      0.01975  1.0000
  H3          0.61287      0.40789      0.07567  1.0000
  C1          0.59610      0.00079      0.72075  1.0000
  N1          0.59899      0.94971      0.69874  1.0000
  N1          0.65109      0.04767      0.74918  1.0000
  C2          0.65931      0.96523      0.71416  1.0000
  C2          0.69105      0.02490      0.74489  1.0000
  H1          0.55450      0.00380      0.71613  1.0000
  C3          0.75268      0.05140      0.76532  1.0000
  C3          0.68923      0.93209      0.70389  1.0000
  C4          0.78260      0.01827      0.75505  1.0000
  C4          0.75087      0.95860      0.72433  1.0000
  H2          0.77892      0.10075      0.79073  1.0000
  H2          0.66299      0.88275      0.67848  1.0000
  H3          0.83359      0.04020      0.77196  1.0000
  H3          0.77562      0.93119      0.71582  1.0000
  C1          0.76783      0.21265      0.71920  1.0000
  N1          0.74596      0.16875      0.78259  1.0000
  N1          0.82771      0.25649      0.73218  1.0000
  C2          0.79488      0.18584      0.83890  1.0000
  C2          0.84467      0.23928      0.80820  1.0000
  H1          0.74050      0.21270      0.66430  1.0000
  C3          0.89963      0.26594      0.85326  1.0000
  C3          0.80006      0.15908      0.91466  1.0000
  C4          0.90481      0.23918      0.92902  1.0000
  C4          0.85502      0.18574      0.95972  1.0000
  H2          0.94080      0.31013      0.82787  1.0000
  H2          0.75889      0.11489      0.94005  1.0000
  H3          0.95028      0.26123      0.96630  1.0000
  H3          0.85931      0.16360      0.02239  1.0000
  C1          0.42918      0.30868      0.00001  1.0000
  N1          0.42293      0.33517      0.92609  1.0000
  N1          0.42293      0.33517      0.07392  1.0000
  C2          0.41211      0.38108      0.95498  1.0000
  C2          0.41211      0.38108      0.04503  1.0000
  H1          0.43816      0.27060      0.00001  1.0000
  C3          0.40223      0.42298      0.09003  1.0000
  C3          0.40223      0.42298      0.90998  1.0000
  C4          0.39235      0.46489      0.04503  1.0000
  C4          0.39235      0.46489      0.95498  1.0000
  H2          0.40223      0.42298      0.16449  1.0000
  H2          0.40223      0.42298      0.83552  1.0000
  H3          0.38417      0.49956      0.08226  1.0000
  H3          0.38417      0.49956      0.91775  1.0000
  C1          0.69129      0.12049      0.00000  1.0000
  N1          0.66481      0.08775      0.92609  1.0000
  N1          0.66481      0.08775      0.07392  1.0000
  C2          0.61891      0.03102      0.95498  1.0000
  C2          0.61891      0.03102      0.04503  1.0000
  H1          0.72936      0.16756      0.00000  1.0000
  C3          0.57702      0.97923      0.09003  1.0000
  C3          0.57702      0.97923      0.90998  1.0000
  C4          0.53512      0.92744      0.04503  1.0000
  C4          0.53512      0.92744      0.95498  1.0000
  H2          0.57702      0.97923      0.16449  1.0000
  H2          0.57702      0.97923      0.83552  1.0000
  H3          0.50046      0.88459      0.08226  1.0000
  H3          0.50046      0.88459      0.91775  1.0000
  C1          0.87950      0.57081      0.00001  1.0000
  N1          0.91223      0.57705      0.92609  1.0000
  N1          0.91223      0.57705      0.07392  1.0000
  C2          0.96896      0.58786      0.95499  1.0000
  C2          0.96896      0.58786      0.04503  1.0000
  H1          0.83244      0.56184      0.00001  1.0000
  C3          0.02074      0.59773      0.09004  1.0000
  C3          0.02074      0.59773      0.90999  1.0000
  C4          0.07252      0.60760      0.04503  1.0000
  C4          0.07252      0.60760      0.95499  1.0000
  H2          0.02074      0.59774      0.16450  1.0000
  H2          0.02074      0.59773      0.83552  1.0000
  H3          0.11536      0.61577      0.08227  1.0000
  H3          0.11536      0.61576      0.91776  1.0000
  C1          0.57080      0.69129      0.00001  1.0000
  N1          0.57705      0.66480      0.92609  1.0000
  N1          0.57705      0.66480      0.07392  1.0000
  C2          0.58787      0.61889      0.95498  1.0000
  C2          0.58787      0.61889      0.04503  1.0000
  H1          0.56183      0.72937      0.00001  1.0000
  C3          0.59775      0.57699      0.09003  1.0000
  C3          0.59775      0.57699      0.90998  1.0000
  C4          0.60763      0.53508      0.04503  1.0000
  C4          0.60763      0.53508      0.95498  1.0000
  H2          0.59775      0.57699      0.16449  1.0000
  H2          0.59775      0.57699      0.83552  1.0000
  H3          0.61580      0.50041      0.08226  1.0000
  H3          0.61580      0.50041      0.91775  1.0000
  C1          0.30868      0.87949      0.00000  1.0000
  N1          0.33516      0.91223      0.92609  1.0000
  N1          0.33516      0.91223      0.07392  1.0000
  C2          0.38106      0.96896      0.95498  1.0000
  C2          0.38106      0.96896      0.04503  1.0000
  H1          0.27061      0.83242      0.00000  1.0000
  C3          0.42295      0.02075      0.09003  1.0000
  C3          0.42295      0.02075      0.90998  1.0000
  C4          0.46485      0.07254      0.04503  1.0000
  C4          0.46485      0.07254      0.95498  1.0000
  H2          0.42295      0.02075      0.16449  1.0000
  H2          0.42295      0.02075      0.83552  1.0000
  H3          0.49951      0.11539      0.08226  1.0000
  H3          0.49951      0.11539      0.91775  1.0000
  C1          0.12048      0.42918      0.00000  1.0000
  N1          0.08774      0.42292      0.92609  1.0000
  N1          0.08774      0.42292      0.07392  1.0000
  C2          0.03101      0.41207      0.95498  1.0000
  C2          0.03101      0.41207      0.04503  1.0000
  H1          0.16755      0.43818      0.00000  1.0000
  C3          0.97921      0.40216      0.09003  1.0000
  C3          0.97921      0.40217      0.90998  1.0000
  C4          0.92742      0.39226      0.04503  1.0000
  C4          0.92742      0.39226      0.95499  1.0000
  H2          0.97921      0.40216      0.16449  1.0000
  H2          0.97921      0.40217      0.83552  1.0000
  H3          0.88457      0.38406      0.08226  1.0000
  H3          0.88457      0.38406      0.91776  1.0000
  C1          0.35821      0.47824      0.50001  1.0000
  N1          0.33511      0.48918      0.57392  1.0000
  N1          0.33511      0.48918      0.42609  1.0000
  C2          0.29507      0.50814      0.54503  1.0000
  C2          0.29507      0.50814      0.45498  1.0000
  H1          0.39142      0.46251      0.50001  1.0000
  C3          0.25853      0.52545      0.40998  1.0000
  C3          0.25853      0.52545      0.59003  1.0000
  C4          0.22198      0.54276      0.45498  1.0000
  C4          0.22198      0.54276      0.54503  1.0000
  H2          0.25853      0.52545      0.33552  1.0000
  H2          0.25853      0.52545      0.66449  1.0000
  H3          0.19175      0.55708      0.41775  1.0000
  H3          0.19175      0.55708      0.58226  1.0000
  C1          0.52174      0.87997      0.50001  1.0000
  N1          0.51079      0.84592      0.57392  1.0000
  N1          0.51078      0.84592      0.42609  1.0000
  C2          0.49180      0.78692      0.54503  1.0000
  C2          0.49179      0.78692      0.45498  1.0000
  H1          0.53749      0.92891      0.50001  1.0000
  C3          0.47446      0.73306      0.40998  1.0000
  C3          0.47446      0.73306      0.59003  1.0000
  C4          0.45712      0.67920      0.45498  1.0000
  C4          0.45713      0.67920      0.54502  1.0000
  H2          0.47446      0.73306      0.33552  1.0000
  H2          0.47447      0.73306      0.66449  1.0000
  H3          0.44278      0.63464      0.41775  1.0000
  H3          0.44279      0.63464      0.58226  1.0000
  C1          0.12001      0.64176      0.50001  1.0000
  N1          0.15406      0.66485      0.57392  1.0000
  N1          0.15406      0.66485      0.42609  1.0000
  C2          0.21306      0.70485      0.54503  1.0000
  C2          0.21306      0.70485      0.45498  1.0000
  H1          0.07106      0.60857      0.50001  1.0000
  C3          0.26692      0.74137      0.40998  1.0000
  C3          0.26692      0.74137      0.59003  1.0000
  C4          0.32078      0.77789      0.45498  1.0000
  C4          0.32078      0.77789      0.54503  1.0000
  H2          0.26692      0.74137      0.33552  1.0000
  H2          0.26692      0.74137      0.66449  1.0000
  H3          0.36534      0.80810      0.41775  1.0000
  H3          0.36534      0.80810      0.58226  1.0000
  C1          0.64176      0.52173      0.50001  1.0000
  N1          0.66487      0.51080      0.57392  1.0000
  N1          0.66487      0.51080      0.42609  1.0000
  C2          0.70492      0.49186      0.54503  1.0000
  C2          0.70492      0.49186      0.45498  1.0000
  H1          0.60854      0.53744      0.50001  1.0000
  C3          0.74148      0.47457      0.40998  1.0000
  C3          0.74148      0.47457      0.59003  1.0000
  C4          0.77804      0.45728      0.45498  1.0000
  C4          0.77804      0.45728      0.54503  1.0000
  H2          0.74148      0.47457      0.33552  1.0000
  H2          0.74148      0.47457      0.66449  1.0000
  H3          0.80829      0.44298      0.41775  1.0000
  H3          0.80829      0.44298      0.58226  1.0000
  C1          0.47824      0.12002      0.50001  1.0000
  N1          0.48918      0.15406      0.57392  1.0000
  N1          0.48918      0.15406      0.42609  1.0000
  C2          0.50814      0.21305      0.54503  1.0000
  C2          0.50814      0.21305      0.45498  1.0000
  H1          0.46251      0.07107      0.50001  1.0000
  C3          0.52545      0.26690      0.40998  1.0000
  C3          0.52545      0.26690      0.59003  1.0000
  C4          0.54276      0.32076      0.45498  1.0000
  C4          0.54276      0.32076      0.54503  1.0000
  H2          0.52545      0.26690      0.33552  1.0000
  H2          0.52545      0.26690      0.66449  1.0000
  H3          0.55708      0.36531      0.41775  1.0000
  H3          0.55708      0.36531      0.58226  1.0000
  C1          0.87996      0.35822      0.50000  1.0000
  N1          0.84592      0.33514      0.57392  1.0000
  N1          0.84592      0.33514      0.42609  1.0000
  C2          0.78692      0.29513      0.54503  1.0000
  C2          0.78692      0.29513      0.45498  1.0000
  H1          0.92891      0.39141      0.50000  1.0000
  C3          0.73305      0.25861      0.40998  1.0000
  C3          0.73306      0.25861      0.59003  1.0000
  C4          0.67919      0.22209      0.45499  1.0000
  C4          0.67919      0.22209      0.54503  1.0000
  H2          0.73305      0.25861      0.33552  1.0000
  H2          0.73306      0.25861      0.66449  1.0000
  H3          0.63463      0.19188      0.41776  1.0000
  H3          0.63464      0.19188      0.58226  1.0000
